
**** 09/16/21 16:08:28 ******* PSpice 17.4.0 (Nov 2018) ******* ID# 0 ********

 ** Profile: "root-7"  [ E:\local\college\classes\2021bF\ECEN4013\ECEN4013\ADC\pspice\schematic\adc-pspicefiles\root\7.sim ] 


 ****     CIRCUIT DESCRIPTION


******************************************************************************




** Creating circuit file "7.cir" 
** WARNING: THIS AUTOMATICALLY GENERATED FILE MAY BE OVERWRITTEN BY SUBSEQUENT SIMULATIONS

*Libraries: 
* Profile Libraries :
.INC "E:\local\college\classes\2021bF\ECEN4013\ECEN4013\ADC\pspice\schematic\adc-pspicefiles\root\7\7_profile.inc" 
* Local Libraries :

**** INCLUDING 7_profile.inc ****
.STMLIB ".\2.stl" 

**** RESUMING 7.cir ****
.LIB "E:/local/college/classes/2021bF/ECEN4013/ECEN4013/ADC/pspice/models/cd4000.lib" 
.LIB "../../../adc-pspicefiles/adc.lib" 
.LIB "E:/local/college/classes/2021bF/ECEN4013/ECEN4013/ADC/pspice/models/tl082.lib" 
.LIB "E:/local/college/classes/2021bF/ECEN4013/ECEN4013/ADC/pspice/models/cd4066-cd4060/cd4066b.lib" 
.STMLIB "../../../adc-PSpiceFiles/ADC.stl" 
* From [PSPICE NETLIST] section of C:\Users\colli\AppData\Roaming\SPB_Data\cdssetup\OrCAD_PSpice\17.4.0\PSpice.ini file:
.lib "E:\local\college\microg\saver2021\signals\pspice\models\Q50a02ch.lib" 
.lib "nom.lib" 

*Analysis directives: 
.TRAN  0 0.3 0 
.OPTIONS ADVCONV
.OPTIONS DIGINITSTATE= 0
.PROBE64 V(alias(*)) I(alias(*)) W(alias(*)) D(alias(*)) NOISE(alias(*)) 
.INC "..\root.net" 



**** INCLUDING root.net ****
* source ADC
C_C1         N01906 N01917  32n IC=0 TC=0,0 
R_R1         N01906 N29993  100k TC=0,0 
V_V4         VDD 0 10V
U_DSTM5         STIM(1,0) $G_DPWR $G_DGND T IO_STM STIMULUS=TRIGGER
V_Vref         N33002 0 -5
X_IC9          VIN N29993 N33002 N29993 0 0 N01906 N01917 I0 I1 0 RST_IN VDD 0
+  CD4066B
V_V5         VSS 0 -10
C_C3         0 VSS  10u  TC=0,0 
X_U85B          0 N01906 VDD VSS N01917 ad648a
X_U88         N291780 0 VDD 0 N180505 LM2903/5_1/TI
C_C4         0 N180505  15p  TC=0,0 
R_R3         N180505 VDD  1k TC=0,0 
X_U91A         N180505 N299526 VDD 0 CD40106B PARAMS:
+ IO_LEVEL=0 MNTYMXDLY=0
X_U123B          0 N294365 VDD VSS N291780 ad648a
R_R4         N01917 N294365  1k TC=0,0 
R_R5         N294365 N291780  1k TC=0,0 
X_U124A         N299526 P VDD 0 CD40106B PARAMS:
+ IO_LEVEL=0 MNTYMXDLY=0
V_V6         VIN 0  
+PULSE 2.5 5 0 1 5 0 10
C_C2         0 VDD  10u  TC=0,0 
X_IC13          NY0 T NZ2 NZ3 T NZ5 0 0 S0 S1 S2 0 0 N2 CD4512B PARAMS:
+  IO_LEVEL=0 MNTYMXDLY=0
X_IC12          NY0 NY1 T NY3 NY4 NY5 0 0 S0 S1 S2 0 0 N1 CD4512B PARAMS:
+  IO_LEVEL=0 MNTYMXDLY=0
X_U109         S0 CLK N402827 N364495 N364771 $G_DPWR $G_DGND JKFF
X_U105         N365101 CLK S0CHANGE ARISE CLK_EN_OVERIDE $G_DPWR $G_DGND JKFF
X_IC10          S0 S1 S2 0 SB0 SB1 SB2 M_UN0001 SB4 M_UN0002 M_UN0003 M_UN0004
+  M_UN0005 M_UN0006 CD4028B PARAMS: IO_LEVEL=0 MNTYMXDLY=0
X_STATEBUFF          CLK 0 0 0 N0 N1 N2 0 VDD VDD S0 S1 S2 M_UN0007 CD4076B
+  PARAMS: IO_LEVEL=0 MNTYMXDLY=0
X_IC11          SB0 SB1 NX2 NX3 SB4 NX5 0 0 S0 S1 S2 0 0 N0 CD4512B PARAMS:
+  IO_LEVEL=0 MNTYMXDLY=0
X_OUTPUTBUFF2          WR 0 0 0 Q4 Q5 Q6 Q7 VDD VDD Y4 Y5 Y6 Y7 CD4076B PARAMS:
+  IO_LEVEL=0 MNTYMXDLY=0
X_U121B         N3832700 N383332 VDD 0 CD40106B PARAMS:
+ IO_LEVEL=0 MNTYMXDLY=0
X_U120         VDD N383332 VDD N383376 M_UN0008 $G_DPWR $G_DGND JKFF
X_CNTA         N383512 RST_CNT N426095 Q0 Q1 Q2 Q3 VDD 0 CD4520B PARAMS:
+ IO_LEVEL=0 MNTYMXDLY=0
X_OUTPUTBUFF1          WR 0 0 0 Q0 Q1 Q2 Q3 VDD VDD Y0 Y1 Y2 Y3 CD4076B PARAMS:
+  IO_LEVEL=0 MNTYMXDLY=0
X_U122B         N383376 CLK VDD 0 CD40106B PARAMS:
+ IO_LEVEL=0 MNTYMXDLY=0
X_CNTB         0 RST_CNT Q3 Q4 Q5 Q6 Q7 VDD 0 CD4520B PARAMS:
+ IO_LEVEL=0 MNTYMXDLY=0
X_AND8          Q0 Q1 Q2 Q3 Q7 Q6 Q5 Q4 M_UN0009 A M_UN0010 M_UN0011 CD4068B
+  PARAMS: IO_LEVEL=0 MNTYMXDLY=0
U_DSTM1         STIM(1,1) $G_DPWR $G_DGND N3832700 IO_STM IO_LEVEL=0 
+ 0 0
+ +0 1
+REPEAT FOREVER
+ +500n 0
+  +500n 1
+ ENDREPEAT
X_U129B          N3884640 N3884641 CD4069UB PARAMS: IO_LEVEL=0 MNTYMXDLY=0
X_U129C          N3884641 N3885121 CD4069UB PARAMS: IO_LEVEL=0 MNTYMXDLY=0
X_U129D          N3885121 N383512 CD4069UB PARAMS: IO_LEVEL=0 MNTYMXDLY=0
X_U129A          CLK N3884640 CD4069UB PARAMS: IO_LEVEL=0 MNTYMXDLY=0
X_U129E          SB4 NY4 CD4069UB PARAMS: IO_LEVEL=0 MNTYMXDLY=0
X_U129F          SB2 NZ2 CD4069UB PARAMS: IO_LEVEL=0 MNTYMXDLY=0
X_U131A          ARISE NARISE CD4069UB PARAMS: IO_LEVEL=0 MNTYMXDLY=0
X_U131B          T NT CD4069UB PARAMS: IO_LEVEL=0 MNTYMXDLY=0
X_U131C          P NP CD4069UB PARAMS: IO_LEVEL=0 MNTYMXDLY=0
X_U131D          SB0 NY0 CD4069UB PARAMS: IO_LEVEL=0 MNTYMXDLY=0
X_U131F          SB1 NY1 CD4069UB PARAMS: IO_LEVEL=0 MNTYMXDLY=0
X_U132A          N414529 WR CD4069UB PARAMS: IO_LEVEL=0 MNTYMXDLY=0
X_U132B          S1 RST_IN CD4069UB PARAMS: IO_LEVEL=0 MNTYMXDLY=0
X_U132C          S2 N365667 CD4069UB PARAMS: IO_LEVEL=0 MNTYMXDLY=0
X_U132D          S0 N366199 CD4069UB PARAMS: IO_LEVEL=0 MNTYMXDLY=0
X_U132E          S0 N402827 CD4069UB PARAMS: IO_LEVEL=0 MNTYMXDLY=0
X_U132F          S0 N364621 CD4069UB PARAMS: IO_LEVEL=0 MNTYMXDLY=0
X_U133A          S0CHANGE N365081 CD4069UB PARAMS: IO_LEVEL=0 MNTYMXDLY=0
X_U134A          N364545 N364729 S0CHANGE CD4071B PARAMS: IO_LEVEL=0
+  MNTYMXDLY=0
X_U134B          S0 S1 N414529 CD4071B PARAMS: IO_LEVEL=0 MNTYMXDLY=0
X_U134C          S1 N365843 MEAS CD4071B PARAMS: IO_LEVEL=0 MNTYMXDLY=0
X_U134D          NARISE NT NX5 CD4071B PARAMS: IO_LEVEL=0 MNTYMXDLY=0
X_U135A          NT P NX3 CD4071B PARAMS: IO_LEVEL=0 MNTYMXDLY=0
X_U135B          ARISE NT NX2 CD4071B PARAMS: IO_LEVEL=0 MNTYMXDLY=0
X_U136A          N364495 N364621 N364545 CD4081B PARAMS: IO_LEVEL=0 MNTYMXDLY=0
X_U136B          N364771 S0 N364729 CD4081B PARAMS: IO_LEVEL=0 MNTYMXDLY=0
X_U136C          N365081 A N365101 CD4081B PARAMS: IO_LEVEL=0 MNTYMXDLY=0
X_U136D          S0 N365523 RST_CNT CD4081B PARAMS: IO_LEVEL=0 MNTYMXDLY=0
X_U137A          RST_IN N365667 N365523 CD4081B PARAMS: IO_LEVEL=0 MNTYMXDLY=0
X_U137B          S0 S2 N365843 CD4081B PARAMS: IO_LEVEL=0 MNTYMXDLY=0
X_U137C          S0 S1 I1 CD4081B PARAMS: IO_LEVEL=0 MNTYMXDLY=0
X_U137D          S1 N366199 I0 CD4081B PARAMS: IO_LEVEL=0 MNTYMXDLY=0
X_U138A          ARISE T NY5 CD4081B PARAMS: IO_LEVEL=0 MNTYMXDLY=0
X_U138B          NARISE T NZ5 CD4081B PARAMS: IO_LEVEL=0 MNTYMXDLY=0
X_U138C          T P NY3 CD4081B PARAMS: IO_LEVEL=0 MNTYMXDLY=0
X_U138D          T NP NZ3 CD4081B PARAMS: IO_LEVEL=0 MNTYMXDLY=0
X_U139A          MEAS CLK_EN_OVERIDE N426095 CD4081B PARAMS: IO_LEVEL=0
+  MNTYMXDLY=0
** Floating/unmodeled pin fixups **
R__UC0001   M_UN0001  0   {1/GMIN}
R__UC0002   M_UN0002  0   {1/GMIN}
R__UC0003   M_UN0003  0   {1/GMIN}
R__UC0004   M_UN0004  0   {1/GMIN}
R__UC0005   M_UN0005  0   {1/GMIN}
R__UC0006   M_UN0006  0   {1/GMIN}
R__UC0007   M_UN0007  0   {1/GMIN}
R__UC0008   M_UN0009  0   {1/GMIN}
R__UC0009   M_UN0010  0   {1/GMIN}
R__UC0010   M_UN0011  0   {1/GMIN}

**** RESUMING 7.cir ****
.END

WARNING(ORPSIM-15223): Library file E:\local\college\classes\2021bF\ECEN4013\ECEN4013\ADC\pspice\models\cd4000.lib has changed since index file cd4000.ind was created.

WARNING(ORPSIM-15227): The timestamp changed from Tue Sep  7 09:30:44 2021 to Thu Sep 16 16:04:58 2021.

INFO(ORPSIM-15422): Making new index file cd4000.ind for library file cd4000.lib.

Index has 249 entries from 1 file(s).

.subckt CD4081B  A B J
+       optional: VDD=$G_CD4000_VDD VSS=$G_CD4000_VSS
+       params: MNTYMXDLY=0 IO_LEVEL=0
U1 anda(2) VDD VSS
-----------$
ERROR(ORPSIM-16151): Invalid integer

WARNING(ORPSIM-15256): <X_U136A.MNTYMXDLY> not a subcircuit param

WARNING(ORPSIM-15256): <X_U136A.IO_LEVEL> not a subcircuit param


**** EXPANSION OF SUBCIRCUIT X_U136A ****
X_U136A.U1 anda 2
-----------------$
ERROR(ORPSIM-16485): Missing device parameters

WARNING(ORPSIM-15256): <X_U136B.MNTYMXDLY> not a subcircuit param

WARNING(ORPSIM-15256): <X_U136B.IO_LEVEL> not a subcircuit param


**** EXPANSION OF SUBCIRCUIT X_U136B ****
X_U136B.U1 anda 2
-----------------$
ERROR(ORPSIM-16485): Missing device parameters

WARNING(ORPSIM-15256): <X_U136C.MNTYMXDLY> not a subcircuit param

WARNING(ORPSIM-15256): <X_U136C.IO_LEVEL> not a subcircuit param


**** EXPANSION OF SUBCIRCUIT X_U136C ****
X_U136C.U1 anda 2
-----------------$
ERROR(ORPSIM-16485): Missing device parameters

WARNING(ORPSIM-15256): <X_U136D.MNTYMXDLY> not a subcircuit param

WARNING(ORPSIM-15256): <X_U136D.IO_LEVEL> not a subcircuit param


**** EXPANSION OF SUBCIRCUIT X_U136D ****
X_U136D.U1 anda 2
-----------------$
ERROR(ORPSIM-16485): Missing device parameters

WARNING(ORPSIM-15256): <X_U137A.MNTYMXDLY> not a subcircuit param

WARNING(ORPSIM-15256): <X_U137A.IO_LEVEL> not a subcircuit param


**** EXPANSION OF SUBCIRCUIT X_U137A ****
X_U137A.U1 anda 2
-----------------$
ERROR(ORPSIM-16485): Missing device parameters

WARNING(ORPSIM-15256): <X_U137B.MNTYMXDLY> not a subcircuit param

WARNING(ORPSIM-15256): <X_U137B.IO_LEVEL> not a subcircuit param


**** EXPANSION OF SUBCIRCUIT X_U137B ****
X_U137B.U1 anda 2
-----------------$
ERROR(ORPSIM-16485): Missing device parameters

WARNING(ORPSIM-15256): <X_U137C.MNTYMXDLY> not a subcircuit param

WARNING(ORPSIM-15256): <X_U137C.IO_LEVEL> not a subcircuit param


**** EXPANSION OF SUBCIRCUIT X_U137C ****
X_U137C.U1 anda 2
-----------------$
ERROR(ORPSIM-16485): Missing device parameters

WARNING(ORPSIM-15256): <X_U137D.MNTYMXDLY> not a subcircuit param

WARNING(ORPSIM-15256): <X_U137D.IO_LEVEL> not a subcircuit param


**** EXPANSION OF SUBCIRCUIT X_U137D ****
X_U137D.U1 anda 2
-----------------$
ERROR(ORPSIM-16485): Missing device parameters

WARNING(ORPSIM-15256): <X_U138A.MNTYMXDLY> not a subcircuit param

WARNING(ORPSIM-15256): <X_U138A.IO_LEVEL> not a subcircuit param


**** EXPANSION OF SUBCIRCUIT X_U138A ****
X_U138A.U1 anda 2
-----------------$
ERROR(ORPSIM-16485): Missing device parameters

WARNING(ORPSIM-15256): <X_U138B.MNTYMXDLY> not a subcircuit param

WARNING(ORPSIM-15256): <X_U138B.IO_LEVEL> not a subcircuit param


**** EXPANSION OF SUBCIRCUIT X_U138B ****
X_U138B.U1 anda 2
-----------------$
ERROR(ORPSIM-16485): Missing device parameters

WARNING(ORPSIM-15256): <X_U138C.MNTYMXDLY> not a subcircuit param

WARNING(ORPSIM-15256): <X_U138C.IO_LEVEL> not a subcircuit param


**** EXPANSION OF SUBCIRCUIT X_U138C ****
X_U138C.U1 anda 2
-----------------$
ERROR(ORPSIM-16485): Missing device parameters

WARNING(ORPSIM-15256): <X_U138D.MNTYMXDLY> not a subcircuit param

WARNING(ORPSIM-15256): <X_U138D.IO_LEVEL> not a subcircuit param


**** EXPANSION OF SUBCIRCUIT X_U138D ****
X_U138D.U1 anda 2
-----------------$
ERROR(ORPSIM-16485): Missing device parameters

WARNING(ORPSIM-15256): <X_U139A.MNTYMXDLY> not a subcircuit param

WARNING(ORPSIM-15256): <X_U139A.IO_LEVEL> not a subcircuit param


**** EXPANSION OF SUBCIRCUIT X_U139A ****
X_U139A.U1 anda 2
-----------------$
ERROR(ORPSIM-16485): Missing device parameters
