
**** 08/20/21 12:49:41 ******* PSpice 17.4.0 (Nov 2018) ******* ID# 0 ********

 ** Profile: "counter-counter"  [ E:\local\college\classes\2021bF\ECEN4013\ADC\circuits\schematic\adc-PSpiceFiles\counter\counter.sim


 ****     CIRCUIT DESCRIPTION


******************************************************************************




** Creating circuit file "counter.cir" 
** WARNING: THIS AUTOMATICALLY GENERATED FILE MAY BE OVERWRITTEN BY SUBSEQUENT SIMULATIONS

*Libraries: 
* Profile Libraries :
.INC "E:\local\college\classes\2021bF\ECEN4013\ADC\circuits\schematic\adc-PSpiceFiles\counter\counter\counter_profile.inc" 
* Local Libraries :
* From [PSPICE NETLIST] section of C:\Users\colli\AppData\Roaming\SPB_Data\cdssetup\OrCAD_PSpice\17.4.0\PSpice.ini file:

**** INCLUDING counter_profile.inc ****
.STMLIB ".\counter.stl" 

**** RESUMING counter.cir ****
.lib "nom.lib" 

*Analysis directives: 
.TRAN  0 10u 0 10n 
.OPTIONS ADVCONV
.PROBE64 V(alias(*)) I(alias(*)) W(alias(*)) D(alias(*)) NOISE(alias(*)) 
.INC "..\counter.net" 



**** INCLUDING counter.net ****
* source ADC
U_DSTM1         STIM(1,1) $G_DPWR $G_DGND N06221 IO_STM IO_LEVEL=0 
+ 0 0
+ +.5uS 1
+REPEAT FOREVER
+ +.5uS 0
+  +.5uS 1
+ ENDREPEAT
U_J         STIM(1,0) $G_DPWR $G_DGND N06368 IO_STM STIMULUS=B
X_U6         N06368 N06221 N06368 Q0 M_UN0001 $G_DPWR $G_DGND JKFF
X_U7         N06450 N06221 N06450 Q1 M_UN0002 $G_DPWR $G_DGND JKFF
X_U8         N06684 N06221 N06684 Q2 M_UN0003 $G_DPWR $G_DGND JKFF
X_U9         N06707 N06221 N06707 Q3 M_UN0004 $G_DPWR $G_DGND JKFF
X_U10         N07500 N06221 N07500 Q4 M_UN0005 $G_DPWR $G_DGND JKFF
X_U11         N06730 N06221 N06730 Q5 M_UN0006 $G_DPWR $G_DGND JKFF
X_U12         N06753 N06221 N06753 Q6 M_UN0007 $G_DPWR $G_DGND JKFF
X_U13         N06782 N06221 N06782 Q7 N08553 $G_DPWR $G_DGND JKFF
X_U14         Q0 N08553 N06450  $G_DPWR $G_DGND AND2
X_U15         Q0 Q1 N06684  $G_DPWR $G_DGND AND2
X_U16         Q0 Q2 N06707  $G_DPWR $G_DGND AND2
X_U17         Q0 Q4 N06730  $G_DPWR $G_DGND AND2
X_U18         Q0 Q5 N06753  $G_DPWR $G_DGND AND2
X_U19         N06753 Q6 N08307  $G_DPWR $G_DGND AND2
X_U20         Q0 Q3 N07500  $G_DPWR $G_DGND AND2
X_U21         Q7 Q0 N08322  $G_DPWR $G_DGND AND2
X_U22         N08322 N08307 N06782 $G_DPWR $G_DGND OR2

**** RESUMING counter.cir ****
.END

;! CLK Digital B Digital C Digital
;!Ok
;!Plot Axis_Settings
;!Xrange 0s 4us
;!AutoUniverse
;!XminRes 1ns
;!YminRes 1n
;!Ok
.STIMULUS A STIM (1, 1)
+   +0s 0
+   58ns 1
+   155ns 0
+   159ns 1
+   201ns 0
+   298ns 1
+   401ns 0
+   424ns 1
+   460ns 0
+   498ns 1
+   554ns 0
+   659ns 1
+   662ns 0
+   674ns 1
+   678ns 0
+   681ns 1
+   688ns 0
+   691ns 1
+   697ns 0
+   730ns 1
+   928ns 0
+   975ns 1
+   1.046us 0
+   1.379us 1
+   2.141us 0
+   2.477us 1
+   2.48us 0
+   2.484us 1
+   2.487us 0
+   2.5us 1
+   2.503us 0
+   2.506us 1
+   2.522us 0
+   2.59us 1
+   2.597us 0
+   2.619us 1
+   2.623us 0
+   2.855us 1
+   2.858us 0
+   2.884us 1
+   2.965us 0
+   3.391us 1
+   3.394us 0
+   3.734us 1
+   3.782us 0
+   3.785us 1
+   3.892us 0
.STIMULUS CLK STIM (1, 1) ;! CLOCK 1e6 0.5 0 0
+   +0s 0
+   +500ns 1
+   Repeat Forever
+      +500ns 0
+      +500ns 1
+   EndRepeat
.STIMULUS B STIM (1, 1)
+   +0s 0
+   432ns 1
+   2.473us 0
.STIMULUS C STIM (1, 1)
+   +0s 0
+   1.477us 1
+   3.437us 0

**** 08/20/21 12:49:41 ******* PSpice 17.4.0 (Nov 2018) ******* ID# 0 ********

 ** Profile: "counter-counter"  [ E:\local\college\classes\2021bF\ECEN4013\ADC\circuits\schematic\adc-PSpiceFiles\counter\counter.sim


 ****     Digital Gate MODEL PARAMETERS


******************************************************************************




               D_PLD_GATE      
      TPLHMN    0            
      TPLHTY    0            
      TPLHMX    0            
      TPHLMN    0            
      TPHLTY    0            
      TPHLMX    0            


**** 08/20/21 12:49:41 ******* PSpice 17.4.0 (Nov 2018) ******* ID# 0 ********

 ** Profile: "counter-counter"  [ E:\local\college\classes\2021bF\ECEN4013\ADC\circuits\schematic\adc-PSpiceFiles\counter\counter.sim


 ****     Digital Edge Triggered FF MODEL PARAMETERS


******************************************************************************




               D_PLD_EFF       
  TPCLKQLHMN    0            
  TPCLKQLHTY    0            
  TPCLKQLHMX    0            
  TPCLKQHLMN    0            
  TPCLKQHLTY    0            
  TPCLKQHLMX    0            
   TPPCQLHMN    0            
   TPPCQLHTY    0            
   TPPCQLHMX    0            
   TPPCQHLMN    0            
   TPPCQHLTY    0            
   TPPCQHLMX    0            
    TWCLKLMN    0            
    TWCLKLTY    0            
    TWCLKLMX    0            
    TWCLKHMN    0            
    TWCLKHTY    0            
    TWCLKHMX    0            
     TWPCLMN    0            
     TWPCLTY    0            
     TWPCLMX    0            
   TSUDCLKMN    0            
   TSUDCLKTY    0            
   TSUDCLKMX    0            
 TSUPCCLKHMN    0            
 TSUPCCLKHTY    0            
 TSUPCCLKHMX    0            
    THDCLKMN    0            
    THDCLKTY    0            
    THDCLKMX    0            
  TSUCECLKMN    0            
  TSUCECLKTY    0            
  TSUCECLKMX    0            
   THCECLKMN    0            
   THCECLKTY    0            
   THCECLKMX    0            


**** 08/20/21 12:49:41 ******* PSpice 17.4.0 (Nov 2018) ******* ID# 0 ********

 ** Profile: "counter-counter"  [ E:\local\college\classes\2021bF\ECEN4013\ADC\circuits\schematic\adc-PSpiceFiles\counter\counter.sim


 ****     Digital IO  MODEL PARAMETERS


******************************************************************************




               IO_STM          IO_PLD          
        DRVL    0                            
        DRVH    0                            
       DtoA1 DtoA_STM                        
       DtoA2 DtoA_STM                        
       DtoA3 DtoA_STM                        
       DtoA4 DtoA_STM                        
       TPWRT  100.000000E+03  100.000000E+03 



          JOB CONCLUDED

**** 08/20/21 12:49:41 ******* PSpice 17.4.0 (Nov 2018) ******* ID# 0 ********

 ** Profile: "counter-counter"  [ E:\local\college\classes\2021bF\ECEN4013\ADC\circuits\schematic\adc-PSpiceFiles\counter\counter.sim


 ****     JOB STATISTICS SUMMARY


******************************************************************************



  License check-out time            =     1434.09
  Total job time                    =         .03
