
**** 08/28/21 11:10:01 ******* PSpice 17.4.0 (Nov 2018) ******* ID# 0 ********

 ** Profile: "SCHEMATIC1-counter"  [ e:\local\college\classes\2021bf\ecen4013\ecen4013\adc\pspice\schematic\adc-pspicefiles\schematic


 ****     CIRCUIT DESCRIPTION


******************************************************************************




** Creating circuit file "counter.cir" 
** WARNING: THIS AUTOMATICALLY GENERATED FILE MAY BE OVERWRITTEN BY SUBSEQUENT SIMULATIONS

*Libraries: 
* Profile Libraries :
.INC "e:\local\college\classes\2021bf\ecen4013\ecen4013\adc\pspice\schematic\adc-pspicefiles\schematic1\counter\counter_profile.inc"
+ "" 
* Local Libraries :
* From [PSPICE NETLIST] section of C:\Users\colli\AppData\Roaming\SPB_Data\cdssetup\OrCAD_PSpice\17.4.0\PSpice.ini file:

**** INCLUDING counter_profile.inc ****
.STMLIB ".\counter.stl" 

**** RESUMING counter.cir ****
.lib "E:\local\college\microg\saver2021\signals\pspice\models\Q50a02ch.lib" 
.lib "nom.lib" 

*Analysis directives: 
.TRAN  0 126u 132u 1n 
.OPTIONS ADVCONV
.PROBE64 V(alias(*)) I(alias(*)) W(alias(*)) D(alias(*)) NOISE(alias(*)) 
.INC "..\SCHEMATIC1.net" 



**** INCLUDING SCHEMATIC1.net ****
* source ADC
E_U1         N00165 0 VALUE {LIMIT(V(0,N01900)*1E6,-5V,+5V)}
C_C1         N01900 N00165  12.8n IC=0 TC=0,0 
R_R1         N01900 VIN  10k TC=0,0 
E_U2         N02733 0 VALUE {LIMIT(V(VREF,N00165)*1E6,0V,+5V)}
V_Vref         VREF 0 0
U_DSTM1         STIM(1,1) $G_DPWR $G_DGND N10767 IO_STM IO_LEVEL=0 
+ 0 0
+ +0 1
+REPEAT FOREVER
+ +250n 0
+  +250n 1
+ ENDREPEAT
U_DSTM4         STIM(1,0) $G_DPWR $G_DGND N14639 IO_STM STIMULUS=RST
X_U7         N09684 N14639 Q0 Q1 Q2 Q3 Q4 Q5 Q6 Q7 N13432 M_UN0001 M_UN0002
+  M_UN0003 $G_CD4000_VDD $G_CD4000_VSS CD4040B PARAMS:
+ IO_LEVEL=0 MNTYMXDLY=0
X_U8         N02733 N10767 N09684  $G_DPWR $G_DGND AND2
V_V2         VIN 0 5
X_U9         N01900 N00165 Sw_tClose PARAMS: tClose=128u ttran=1u Rclosed=7
+  Ropen=1Meg

**** RESUMING counter.cir ****
.END


**** Generated AtoD and DtoA Interfaces ****

*
* Analog/Digital interface for node N02733
*
* Moving X_U8.U1:IN1 from analog node N02733 to new digital node N02733$AtoD
X$N02733_AtoD1
+ N02733
+ N02733$AtoD
+ $G_DPWR
+ $G_DGND
+ AtoDdefault
+       PARAMS: CAPACITANCE=   0     
*
* Analog/Digital interface power supply subcircuits
*
X$DIGIFPWR 0 DIGIFPWR


* E:\local\college\classes\2021bF\ECEN4013\ADC\pspice\schematic\adc-PSpiceFiles\SCHEMATIC1\counter\counter.stl written on Thu Aug 26 16:01:46 2021
* by Stimulus Editor -- Serial Number: 0 -- Version 17.4.0
;!Stimulus Get
;! B Digital LOW Digital RST Digital HIGH Digital
;!Ok
;!Plot Axis_Settings
;!Xrange 0s 300ns
;!AutoUniverse
;!XminRes 1ns
;!YminRes 1n
;!Ok
.STIMULUS B STIM (1, 1)
+   +0s 0
+   56ns 1
.STIMULUS LOW STIM (1, 1)
+   +0s 0
.STIMULUS RST STIM (1, 1)
+   +0s 1
+   253ns 0
.STIMULUS HIGH STIM (1, 1)
+   +0s 1

**** 08/28/21 11:10:01 ******* PSpice 17.4.0 (Nov 2018) ******* ID# 0 ********

 ** Profile: "SCHEMATIC1-counter"  [ e:\local\college\classes\2021bf\ecen4013\ecen4013\adc\pspice\schematic\adc-pspicefiles\schematic


 ****     Voltage Controlled Switch MODEL PARAMETERS


******************************************************************************




               X_U9.Smod       
         RON    7            
        ROFF    1.000000E+06 
         VON    1            
        VOFF    0            


**** 08/28/21 11:10:01 ******* PSpice 17.4.0 (Nov 2018) ******* ID# 0 ********

 ** Profile: "SCHEMATIC1-counter"  [ e:\local\college\classes\2021bf\ecen4013\ecen4013\adc\pspice\schematic\adc-pspicefiles\schematic


 ****     Digital Output MODEL PARAMETERS


******************************************************************************




               DO74            
    TIMESTEP  100.000000E-12 
      S0NAME X               
       S0VHI    2            
       S0VLO     .8          
      S1NAME 0               
       S1VHI     .8          
       S1VLO   -1.5          
      S2NAME R               
       S2VHI    1.4          
       S2VLO     .8          
      S3NAME R               
       S3VHI    2            
       S3VLO    1.3          
      S4NAME X               
       S4VHI    2            
       S4VLO     .8          
      S5NAME 1               
       S5VHI    7            
       S5VLO    2            
      S6NAME F               
       S6VHI    2            
       S6VLO    1.3          
      S7NAME F               
       S7VHI    1.4          
       S7VLO     .8          


**** 08/28/21 11:10:01 ******* PSpice 17.4.0 (Nov 2018) ******* ID# 0 ********

 ** Profile: "SCHEMATIC1-counter"  [ e:\local\college\classes\2021bf\ecen4013\ecen4013\adc\pspice\schematic\adc-pspicefiles\schematic


 ****     Digital Gate MODEL PARAMETERS


******************************************************************************




               D0_GATE         D_CD4040B_1     D_PLD_GATE      
      TPLHMN    0              40.000000E-09    0            
      TPLHTY    0             100.000000E-09    0            
      TPLHMX    0             200.000000E-09    0            
      TPHLMN    0              40.000000E-09    0            
      TPHLTY    0             100.000000E-09    0            
      TPHLMX    0             200.000000E-09    0            


**** 08/28/21 11:10:01 ******* PSpice 17.4.0 (Nov 2018) ******* ID# 0 ********

 ** Profile: "SCHEMATIC1-counter"  [ e:\local\college\classes\2021bf\ecen4013\ecen4013\adc\pspice\schematic\adc-pspicefiles\schematic


 ****     Digital Edge Triggered FF MODEL PARAMETERS


******************************************************************************




               D_CD4040B_2     D_CD4040B_3     D_CD4040B_4     
  TPCLKQLHMN   32.000000E-09    0              72.000000E-09 
  TPCLKQLHTY   80.000000E-09    0             180.000000E-09 
  TPCLKQLHMX  160.000000E-09    0             360.000000E-09 
  TPCLKQHLMN   32.000000E-09    0              72.000000E-09 
  TPCLKQHLTY   80.000000E-09    0             180.000000E-09 
  TPCLKQHLMX  160.000000E-09    0             360.000000E-09 
   TPPCQLHMN    0               0               0            
   TPPCQLHTY    0               0               0            
   TPPCQLHMX    0               0               0            
   TPPCQHLMN    0              16.000000E-09   56.000000E-09 
   TPPCQHLTY    0              40.000000E-09  140.000000E-09 
   TPPCQHLMX    0              80.000000E-09  280.000000E-09 
    TWCLKLMN  140.000000E-09    0             140.000000E-09 
    TWCLKLTY  140.000000E-09    0             140.000000E-09 
    TWCLKLMX  140.000000E-09    0             140.000000E-09 
    TWCLKHMN  140.000000E-09    0             140.000000E-09 
    TWCLKHTY  140.000000E-09    0             140.000000E-09 
    TWCLKHMX  140.000000E-09    0             140.000000E-09 
     TWPCLMN  200.000000E-09  200.000000E-09  200.000000E-09 
     TWPCLTY  200.000000E-09  200.000000E-09  200.000000E-09 
     TWPCLMX  200.000000E-09  200.000000E-09  200.000000E-09 
   TSUDCLKMN    0               0               0            
   TSUDCLKTY    0               0               0            
   TSUDCLKMX    0               0               0            
 TSUPCCLKHMN  350.000000E-09    0             350.000000E-09 
 TSUPCCLKHTY  350.000000E-09    0             350.000000E-09 
 TSUPCCLKHMX  350.000000E-09    0             350.000000E-09 
    THDCLKMN    0               0               0            
    THDCLKTY    0               0               0            
    THDCLKMX    0               0               0            
  TSUCECLKMN    0               0               0            
  TSUCECLKTY    0               0               0            
  TSUCECLKMX    0               0               0            
   THCECLKMN    0               0               0            
   THCECLKTY    0               0               0            
   THCECLKMX    0               0               0            


**** 08/28/21 11:10:01 ******* PSpice 17.4.0 (Nov 2018) ******* ID# 0 ********

 ** Profile: "SCHEMATIC1-counter"  [ e:\local\college\classes\2021bf\ecen4013\ecen4013\adc\pspice\schematic\adc-pspicefiles\schematic


 ****     Digital IO  MODEL PARAMETERS


******************************************************************************




               IO_STM          IO_4000B_ST     IO_4000B        IO_PLD          
        DRVL    0               1.443000E+03    1.443000E+03                 
        DRVH    0               1.443000E+03    1.443000E+03                 
       AtoD1                 AtoD_4000B_ST   AtoD_4000B                      
       AtoD2                 AtoD_4000B_ST   AtoD_4000B_NX                   
       AtoD3                 AtoD_4000B_ST   AtoD_4000B                      
       AtoD4                 AtoD_4000B_ST   AtoD_4000B_NX                   
       DtoA1 DtoA_STM        DtoA_4000B      DtoA_4000B                      
       DtoA2 DtoA_STM        DtoA_4000B      DtoA_4000B                      
       DtoA3 DtoA_STM        DtoA_4000B      DtoA_4000B                      
       DtoA4 DtoA_STM        DtoA_4000B      DtoA_4000B                      
    DIGPOWER                 CD4000_PWR      CD4000_PWR                      
      TSWHL1                    7.720000E-09    7.720000E-09                 
      TSWHL2                    7.860000E-09    7.860000E-09                 
      TSWHL3                    9.710000E-09    9.710000E-09                 
      TSWHL4                    9.630000E-09    9.630000E-09                 
      TSWLH1                    7.560000E-09    7.560000E-09                 
      TSWLH2                    7.400000E-09    7.400000E-09                 
      TSWLH3                    9.410000E-09    9.410000E-09                 
      TSWLH4                    9.240000E-09    9.240000E-09                 
       TPWRT  100.000000E+03  100.000000E+03  100.000000E+03  100.000000E+03 


               IO_DFT          
       AtoD1 AtoD_STD        
       AtoD2 AtoD_STD_NX     
       AtoD3 AtoD_STD        
       AtoD4 AtoD_STD_NX     
       DtoA1 DtoA_STD        
       DtoA2 DtoA_STD        
       DtoA3 DtoA_STD        
       DtoA4 DtoA_STD        
       TPWRT  100.000000E+03 


ERROR(ORPSIM-15413): Transient Stop time 0.000126 s is less than Print Start time 0.000132 s.


ABORTING SIMULATION
**** 08/28/21 11:10:01 ******* PSpice 17.4.0 (Nov 2018) ******* ID# 0 ********

 ** Profile: "SCHEMATIC1-counter"  [ e:\local\college\classes\2021bf\ecen4013\ecen4013\adc\pspice\schematic\adc-pspicefiles\schematic


 ****     JOB STATISTICS SUMMARY


******************************************************************************



Node counts:
  Top level (NUNODS)                =           6
  External (NCNODS)                 =           9
  Total (NUMNOD)                    =           9

Total device count (NUMEL)          =          35
  Capacitors (C)                    =           1
  VCVS (E)                          =           2
  Dig. Outputs (O)                  =           1
  Resistors (R)                     =           3
  VSwitches (S)                     =           1
  Dig. Devices (U)                  =          22
  Voltage Sources (V)               =           5

Number of subcircuits (X)           =           5

Matrix statistics:
  Matrix size (NSTOP)               =          16
  Initial no. elements (NTTAR)      =          34
  No. elements w/ fillin (NTTBR)    =          34
  No. fillins (IFILL)               =           0
  No. overflows (NTTOV)             =           0
  No. LU operations (IOPS)          =           0
  Percent sparsity (PERSPA)         =      86.719

Analysis statistics:
  No. total time points (NUMTTP)    =           0
  No. rejected time points (NUMRTP) =           0
  No. iterations (NUMNIT)           =           0
  No. digital nets (DIGNET)         =          43
  No. next time evals (DIGTP)       =           0
  No. events (DIGEVT)               =           0
  No. device evals (DIGEVL)         =           0

Load Threads                        =           1

Runtime statistics:                       Seconds      Iterations
  Matrix load                       =        0.00
  Matrix solution                   =        0.00               1
  Digital simulation                =        0.00
  Readin                            =         .02
  General setup                     =        0.00
  CMI setup                     =        0.00
  Setup                             =        0.00
  DC sweep                          =        0.00               0
  Bias point                        =        0.00               0
  AC and noise                      =        0.00               0
  Total transient analysis          =        0.00
  Output                            =        0.00
  Overhead                          =        6.39
  License check-out time            =       29.75
  Total job time (using Solver 1)   =         .30
